Circuit: * Z:\home\sammy\PyRTL\spice_gates\NandGate.asc

Limiting rise time of source v告nputa to 0.1
Limiting fall time of source v告nputa to 0.1
Limiting rise time of source v告nputb to 0.2
Limiting fall time of source v告nputb to 0.2
Direct Newton iteration for .op point succeeded.

Date: Mon Feb 16 23:12:49 2015
Total elapsed time: 0.164 seconds.

tnom = 27
temp = 27
method = modified trap
totiter = 25840
traniter = 25835
tranpoints = 10332
accept = 10281
rejected = 51
matrix size = 8
fillins = 0
solver = Normal
Matrix Compiler1: 282 bytes object code size  0.2/0.2/[0.1]
Matrix Compiler2: 642 bytes object code size  0.2/0.2/[0.2]


