Circuit: * Z:\home\sammy\PyRTL\spice_gates\NorGate.asc

Limiting rise time of source v告nputa to 0.1
Limiting fall time of source v告nputa to 0.1
Limiting rise time of source v告nputb to 0.2
Limiting fall time of source v告nputb to 0.2
Direct Newton iteration for .op point succeeded.

Date: Mon Feb 16 23:08:35 2015
Total elapsed time: 0.156 seconds.

tnom = 27
temp = 27
method = modified trap
totiter = 21082
traniter = 21070
tranpoints = 10317
accept = 10272
rejected = 45
matrix size = 8
fillins = 0
solver = Normal
Matrix Compiler1: 318 bytes object code size  0.2/0.2/[0.2]
Matrix Compiler2: 670 bytes object code size  0.2/0.2/[0.2]


